results/case24_ieee_rts.log
components INFO: case_file = case24_ieee_rts
components INFO: Solve the power flow

components INFO: Total P gens    2901.246 MW
components INFO: Total P load    2850.000 MW
components INFO: Total P losses    51.246 MW

components INFO: Total Q gens     587.363 Mvar
components INFO: Total Q shunts  -102.496 Mvar
components INFO: Total Q load     580.000 Mvar
components INFO: Total Q losses   -95.132 Mvar

components INFO: Read bus coordinates
components INFO: Calculate active power flow components
makeAPFC INFO: Starting ...
makeActiveFlows INFO: Swap branch orientation when both PF and PT are negative (29)
makeActiveFlows DEBUG: Before swap
    F_BUS  T_BUS       PF       PT
1       1      3   -7.967   -8.308
6       3     24 -211.206 -212.319
7       4      9  -36.151  -36.516
8       5     10  -11.714  -11.760
9       6     10  -88.592  -89.659
11      8      9  -36.923  -37.527
12      8     10  -21.194  -21.497
13      9     11 -105.919 -106.196
14      9     12 -120.466 -120.836
15     10     11 -151.177 -151.723
16     10     12 -166.739 -167.380
17     11     13  -86.146  -86.764
18     11     14 -171.773 -173.551
19     12     13  -60.514  -60.785
20     12     23 -227.701 -234.100
21     13     23 -225.303 -230.741
22     14     16 -367.551 -374.605
24     15     21 -214.919 -217.832
25     15     21 -214.919 -217.832
27     16     17 -322.676 -326.029
29     17     18 -186.941 -187.578
30     17     22 -139.088 -141.543
31     18     21  -60.289  -60.400
32     18     21  -60.289  -60.400
33     19     20  -33.175  -33.288
34     19     20  -33.175  -33.288
35     20     23  -97.288  -97.579
36     20     23  -97.288  -97.579
37     21     22 -156.464 -158.457
makeActiveFlows DEBUG: After swap
    F_BUS  T_BUS       PF       PT
1       3      1    8.308    7.967
6      24      3  212.319  211.206
7       9      4   36.516   36.151
8      10      5   11.760   11.714
9      10      6   89.659   88.592
11      9      8   37.527   36.923
12     10      8   21.497   21.194
13     11      9  106.196  105.919
14     12      9  120.836  120.466
15     11     10  151.723  151.177
16     12     10  167.380  166.739
17     13     11   86.764   86.146
18     14     11  173.551  171.773
19     13     12   60.785   60.514
20     23     12  234.100  227.701
21     23     13  230.741  225.303
22     16     14  374.605  367.551
24     21     15  217.832  214.919
25     21     15  217.832  214.919
27     17     16  326.029  322.676
29     18     17  187.578  186.941
30     22     17  141.543  139.088
31     21     18   60.400   60.289
32     21     18   60.400   60.289
33     20     19   33.288   33.175
34     20     19   33.288   33.175
35     23     20   97.579   97.288
36     23     20   97.579   97.288
37     22     21  158.457  156.464
makeActiveFlows INFO: Generators with negative power converted to loads (1)
makeAPFC DEBUG: =============== Sets A and B ===============
makeAPFC DEBUG: A[1] = {'E1': {'P': 11.939906293991848, 'side': 'PF', 'sign': 1}, 'E3': {'P': 60.026812839748125, 'side': 'PF', 'sign': 1}, 'L1': {'P': 108.0, 'side': 'PF', 'sign': 1}}
makeAPFC DEBUG: B[1] = {'E2': {'P': 7.966719133723327, 'side': 'PT', 'sign': 1}, 'G1.1': {'P': 10.0, 'side': 'PT', 'sign': 1}, 'G1.2': {'P': 10.0, 'side': 'PT', 'sign': 1}, 'G1.3': {'P': 76.0, 'side': 'PT', 'sign': 1}, 'G1.4': {'P': 76.0, 'side': 'PT', 'sign': 1}}

makeAPFC DEBUG: A[2] = {'E4': {'P': 38.435815469122936, 'side': 'PF', 'sign': 1}, 'E5': {'P': 48.50051068678821, 'side': 'PF', 'sign': 1}, 'L2': {'P': 97.0, 'side': 'PF', 'sign': 1}}
makeAPFC DEBUG: B[2] = {'E1': {'P': 11.936326155895493, 'side': 'PT', 'sign': 1}, 'G2.1': {'P': 10.0, 'side': 'PT', 'sign': 1}, 'G2.2': {'P': 10.0, 'side': 'PT', 'sign': 1}, 'G2.3': {'P': 76.0, 'side': 'PT', 'sign': 1}, 'G2.4': {'P': 76.0, 'side': 'PT', 'sign': 1}}

makeAPFC DEBUG: A[3] = {'E2': {'P': 8.308247725176075, 'side': 'PF', 'sign': 1}, 'E6': {'P': 22.89800252981674, 'side': 'PF', 'sign': 1}, 'L3': {'P': 180.0, 'side': 'PF', 'sign': 1}}
makeAPFC DEBUG: B[3] = {'E7': {'P': 211.2062502547619, 'side': 'PT', 'sign': 1}}

makeAPFC DEBUG: A[4] = {'L4': {'P': 74.0, 'side': 'PF', 'sign': 1}}
makeAPFC DEBUG: B[4] = {'E4': {'P': 37.84859820283668, 'side': 'PT', 'sign': 1}, 'E8': {'P': 36.15140179713207, 'side': 'PT', 'sign': 1}}

makeAPFC DEBUG: A[5] = {'L5': {'P': 71.0, 'side': 'PF', 'sign': 1}}
makeAPFC DEBUG: B[5] = {'E3': {'P': 59.28607648846115, 'side': 'PT', 'sign': 1}, 'E9': {'P': 11.713923511502486, 'side': 'PT', 'sign': 1}}

makeAPFC DEBUG: A[6] = {'L6': {'P': 136.0, 'side': 'PF', 'sign': 1}}
makeAPFC DEBUG: B[6] = {'E5': {'P': 47.40773387375048, 'side': 'PT', 'sign': 1}, 'E10': {'P': 88.59226612622189, 'side': 'PT', 'sign': 1}}

makeAPFC DEBUG: A[7] = {'E11': {'P': 115.00000000000423, 'side': 'PF', 'sign': 1}, 'L7': {'P': 125.0, 'side': 'PF', 'sign': 1}}
makeAPFC DEBUG: B[7] = {'G7.1': {'P': 80.0, 'side': 'PT', 'sign': 1}, 'G7.2': {'P': 80.0, 'side': 'PT', 'sign': 1}, 'G7.3': {'P': 80.0, 'side': 'PT', 'sign': 1}}

makeAPFC DEBUG: A[8] = {'L8': {'P': 171.0, 'side': 'PF', 'sign': 1}}
makeAPFC DEBUG: B[8] = {'E11': {'P': 112.88233047811977, 'side': 'PT', 'sign': 1}, 'E12': {'P': 36.9232510520964, 'side': 'PT', 'sign': 1}, 'E13': {'P': 21.194418469743404, 'side': 'PT', 'sign': 1}}

makeAPFC DEBUG: A[9] = {'E8': {'P': 36.515643699122855, 'side': 'PF', 'sign': 1}, 'E12': {'P': 37.527422597249476, 'side': 'PF', 'sign': 1}, 'L9': {'P': 175.0, 'side': 'PF', 'sign': 1}}
makeAPFC DEBUG: B[9] = {'E6': {'P': 22.65807985553735, 'side': 'PT', 'sign': 1}, 'E14': {'P': 105.9186399099655, 'side': 'PT', 'sign': 1}, 'E15': {'P': 120.46634653087465, 'side': 'PT', 'sign': 1}}

makeAPFC DEBUG: A[10] = {'E9': {'P': 11.759544797218203, 'side': 'PF', 'sign': 1}, 'E10': {'P': 89.65915015412081, 'side': 'PF', 'sign': 1}, 'E13': {'P': 21.497298669204195, 'side': 'PF', 'sign': 1}, 'L10': {'P': 195.0, 'side': 'PF', 'sign': 1}}
makeAPFC DEBUG: B[10] = {'E16': {'P': 151.1769264958344, 'side': 'PT', 'sign': 1}, 'E17': {'P': 166.73906712469983, 'side': 'PT', 'sign': 1}}

makeAPFC DEBUG: A[11] = {'E14': {'P': 106.19562170631526, 'side': 'PF', 'sign': 1}, 'E16': {'P': 151.72333370367235, 'side': 'PF', 'sign': 1}}
makeAPFC DEBUG: B[11] = {'E18': {'P': 86.14587583626, 'side': 'PT', 'sign': 1}, 'E19': {'P': 171.7730795737943, 'side': 'PT', 'sign': 1}}

makeAPFC DEBUG: A[12] = {'E15': {'P': 120.83557014505917, 'side': 'PF', 'sign': 1}, 'E17': {'P': 167.3801878442282, 'side': 'PF', 'sign': 1}}
makeAPFC DEBUG: B[12] = {'E20': {'P': 60.514300056702695, 'side': 'PT', 'sign': 1}, 'E21': {'P': 227.70145793266116, 'side': 'PT', 'sign': 1}}

makeAPFC DEBUG: A[13] = {'E18': {'P': 86.76392492028579, 'side': 'PF', 'sign': 1}, 'E20': {'P': 60.78509717511857, 'side': 'PF', 'sign': 1}, 'L13': {'P': 265.0, 'side': 'PF', 'sign': 1}, 'G13.3': {'P': 2.9535845093179773, 'side': 'PF', 'sign': 1}}
makeAPFC DEBUG: B[13] = {'E22': {'P': 225.3026066047223, 'side': 'PT', 'sign': 1}, 'G13.1': {'P': 95.1, 'side': 'PT', 'sign': 1}, 'G13.2': {'P': 95.1, 'side': 'PT', 'sign': 1}}

makeAPFC DEBUG: A[14] = {'E19': {'P': 173.55099295080066, 'side': 'PF', 'sign': 1}, 'L14': {'P': 194.0, 'side': 'PF', 'sign': 1}}
makeAPFC DEBUG: B[14] = {'E23': {'P': 367.5509929507989, 'side': 'PT', 'sign': 1}}

makeAPFC DEBUG: A[15] = {'E24': {'P': 112.30085171510792, 'side': 'PF', 'sign': 1}, 'E27': {'P': 215.537776673048, 'side': 'PF', 'sign': 1}, 'L15': {'P': 317.0, 'side': 'PF', 'sign': 1}}
makeAPFC DEBUG: B[15] = {'E25': {'P': 214.9193141940841, 'side': 'PT', 'sign': 1}, 'E26': {'P': 214.9193141940841, 'side': 'PT', 'sign': 1}, 'G15.1': {'P': 12.0, 'side': 'PT', 'sign': 1}, 'G15.2': {'P': 12.0, 'side': 'PT', 'sign': 1}, 'G15.3': {'P': 12.0, 'side': 'PT', 'sign': 1}, 'G15.4': {'P': 12.0, 'side': 'PT', 'sign': 1}, 'G15.5': {'P': 12.0, 'side': 'PT', 'sign': 1}, 'G15.6': {'P': 155.0, 'side': 'PT', 'sign': 1}}

makeAPFC DEBUG: A[16] = {'E23': {'P': 374.60468254558566, 'side': 'PF', 'sign': 1}, 'E29': {'P': 115.08259315354088, 'side': 'PF', 'sign': 1}, 'L16': {'P': 100.0, 'side': 'PF', 'sign': 1}}
makeAPFC DEBUG: B[16] = {'E24': {'P': 112.01079943383247, 'side': 'PT', 'sign': 1}, 'E28': {'P': 322.6764762652939, 'side': 'PT', 'sign': 1}, 'G16': {'P': 155.0, 'side': 'PT', 'sign': 1}}

makeAPFC DEBUG: A[17] = {'E28': {'P': 326.02927216765505, 'side': 'PF', 'sign': 1}}
makeAPFC DEBUG: B[17] = {'E30': {'P': 186.94093262487598, 'side': 'PT', 'sign': 1}, 'E31': {'P': 139.08833954277858, 'side': 'PT', 'sign': 1}}

makeAPFC DEBUG: A[18] = {'E30': {'P': 187.5784778953487, 'side': 'PF', 'sign': 1}, 'L18': {'P': 333.0, 'side': 'PF', 'sign': 1}}
makeAPFC DEBUG: B[18] = {'E32': {'P': 60.28923894767505, 'side': 'PT', 'sign': 1}, 'E33': {'P': 60.28923894767505, 'side': 'PT', 'sign': 1}, 'G18': {'P': 400.0, 'side': 'PT', 'sign': 1}}

makeAPFC DEBUG: A[19] = {'L19': {'P': 181.0, 'side': 'PF', 'sign': 1}}
makeAPFC DEBUG: B[19] = {'E29': {'P': 114.6500523671222, 'side': 'PT', 'sign': 1}, 'E34': {'P': 33.174973816438765, 'side': 'PT', 'sign': 1}, 'E35': {'P': 33.174973816438765, 'side': 'PT', 'sign': 1}}

makeAPFC DEBUG: A[20] = {'E34': {'P': 33.28810660966356, 'side': 'PF', 'sign': 1}, 'E35': {'P': 33.28810660966356, 'side': 'PF', 'sign': 1}, 'L20': {'P': 128.0, 'side': 'PF', 'sign': 1}}
makeAPFC DEBUG: B[20] = {'E36': {'P': 97.28810660966354, 'side': 'PT', 'sign': 1}, 'E37': {'P': 97.28810660966354, 'side': 'PT', 'sign': 1}}

makeAPFC DEBUG: A[21] = {'E25': {'P': 217.83191364262083, 'side': 'PF', 'sign': 1}, 'E26': {'P': 217.83191364262083, 'side': 'PF', 'sign': 1}, 'E32': {'P': 60.40001064890692, 'side': 'PF', 'sign': 1}, 'E33': {'P': 60.40001064890692, 'side': 'PF', 'sign': 1}}
makeAPFC DEBUG: B[21] = {'E38': {'P': 156.4638485830559, 'side': 'PT', 'sign': 1}, 'G21': {'P': 400.0, 'side': 'PT', 'sign': 1}}

makeAPFC DEBUG: A[22] = {'E31': {'P': 141.54257415469579, 'side': 'PF', 'sign': 1}, 'E38': {'P': 158.457425845304, 'side': 'PF', 'sign': 1}}
makeAPFC DEBUG: B[22] = {'G22.1': {'P': 50.0, 'side': 'PT', 'sign': 1}, 'G22.2': {'P': 50.0, 'side': 'PT', 'sign': 1}, 'G22.3': {'P': 50.0, 'side': 'PT', 'sign': 1}, 'G22.4': {'P': 50.0, 'side': 'PT', 'sign': 1}, 'G22.5': {'P': 50.0, 'side': 'PT', 'sign': 1}, 'G22.6': {'P': 50.0, 'side': 'PT', 'sign': 1}}

makeAPFC DEBUG: A[23] = {'E21': {'P': 234.10027488374485, 'side': 'PF', 'sign': 1}, 'E22': {'P': 230.74091271795473, 'side': 'PF', 'sign': 1}, 'E36': {'P': 97.57940619914882, 'side': 'PF', 'sign': 1}, 'E37': {'P': 97.57940619914882, 'side': 'PF', 'sign': 1}}
makeAPFC DEBUG: B[23] = {'G23.1': {'P': 155.0, 'side': 'PT', 'sign': 1}, 'G23.2': {'P': 155.0, 'side': 'PT', 'sign': 1}, 'G23.3': {'P': 350.0, 'side': 'PT', 'sign': 1}}

makeAPFC DEBUG: A[24] = {'E7': {'P': 212.31914961490173, 'side': 'PF', 'sign': 1}}
makeAPFC DEBUG: B[24] = {'E27': {'P': 212.31914961502804, 'side': 'PT', 'sign': 1}}

makeAPFC DEBUG: =======================================================
makeAPFC DEBUG: Initial known components: ['G1.1', 'G1.2', 'G1.3', 'G1.4', 'G2.1', 'G2.2', 'G2.3', 'G2.4', 'G7.1', 'G7.2', 'G7.3', 'G13.1', 'G13.2', 'G15.1', 'G15.2', 'G15.3', 'G15.4', 'G15.5', 'G15.6', 'G16', 'G18', 'G21', 'G22.1', 'G22.2', 'G22.3', 'G22.4', 'G22.5', 'G22.6', 'G23.1', 'G23.2', 'G23.3']
makeAPFC DEBUG: ========== Start of iteration 1 ==========
makeAPFC DEBUG: Processing bus k = 1
makeAPFC DEBUG:     not all APFC known, skipping ...
makeAPFC DEBUG: Processing bus k = 2
makeAPFC DEBUG:     not all APFC known, skipping ...
makeAPFC DEBUG: Processing bus k = 3
makeAPFC DEBUG:     not all APFC known, skipping ...
makeAPFC DEBUG: Processing bus k = 4
makeAPFC DEBUG:     not all APFC known, skipping ...
makeAPFC DEBUG: Processing bus k = 5
makeAPFC DEBUG:     not all APFC known, skipping ...
makeAPFC DEBUG: Processing bus k = 6
makeAPFC DEBUG:     not all APFC known, skipping ...
makeAPFC DEBUG: Processing bus k = 7
makeAPFC DEBUG: B[7]: ['G7.1', 'G7.2', 'G7.3'], [80.0, 80.0, 80.0], ['PT', 'PT', 'PT'], [1, 1, 1], sum(P) = 240.0
makeAPFC DEBUG: A[7]: ['E11', 'L7'], [115.00000000000423, 125.0], ['PF', 'PF'], [1, 1], sum(P) = 240.00000000000423
makeAPFC DEBUG: outflow: E11_PF (7-8)
makeAPFC DEBUG: f = 115.00000000000423/240.0 = 0.47916666666668434
makeAPFC DEBUG: inflow: G7.1.G7.1 = 80.0, CP = 38.33333333333475 --> component for: E11_PF.G7.1 (7-8)
makeAPFC DEBUG: P_other_side = 37.6274434927066 --> component for: E11_PT.G7.1
makeAPFC DEBUG: inflow: G7.2.G7.2 = 80.0, CP = 38.33333333333475 --> component for: E11_PF.G7.2 (7-8)
makeAPFC DEBUG: P_other_side = 37.6274434927066 --> component for: E11_PT.G7.2
makeAPFC DEBUG: inflow: G7.3.G7.3 = 80.0, CP = 38.33333333333475 --> component for: E11_PF.G7.3 (7-8)
makeAPFC DEBUG: P_other_side = 37.6274434927066 --> component for: E11_PT.G7.3
makeAPFC DEBUG: outflow: L7_PF (7-0)
makeAPFC DEBUG: f = 125.0/240.0 = 0.5208333333333334
makeAPFC DEBUG: inflow: G7.1.G7.1 = 80.0, CP = 41.66666666666667 --> component for: L7_PF.G7.1 (7-0)
makeAPFC DEBUG: P_other_side = 41.66666666666667 --> component for: L7_PT.G7.1
makeAPFC DEBUG: inflow: G7.2.G7.2 = 80.0, CP = 41.66666666666667 --> component for: L7_PF.G7.2 (7-0)
makeAPFC DEBUG: P_other_side = 41.66666666666667 --> component for: L7_PT.G7.2
makeAPFC DEBUG: inflow: G7.3.G7.3 = 80.0, CP = 41.66666666666667 --> component for: L7_PF.G7.3 (7-0)
makeAPFC DEBUG: P_other_side = 41.66666666666667 --> component for: L7_PT.G7.3
makeAPFC DEBUG: Processing bus k = 8
makeAPFC DEBUG:     not all APFC known, skipping ...
makeAPFC DEBUG: Processing bus k = 9
makeAPFC DEBUG:     not all APFC known, skipping ...
makeAPFC DEBUG: Processing bus k = 10
makeAPFC DEBUG:     not all APFC known, skipping ...
makeAPFC DEBUG: Processing bus k = 11
makeAPFC DEBUG:     not all APFC known, skipping ...
makeAPFC DEBUG: Processing bus k = 12
makeAPFC DEBUG:     not all APFC known, skipping ...
makeAPFC DEBUG: Processing bus k = 13
makeAPFC DEBUG:     not all APFC known, skipping ...
makeAPFC DEBUG: Processing bus k = 14
makeAPFC DEBUG:     not all APFC known, skipping ...
makeAPFC DEBUG: Processing bus k = 15
makeAPFC DEBUG:     not all APFC known, skipping ...
makeAPFC DEBUG: Processing bus k = 16
makeAPFC DEBUG:     not all APFC known, skipping ...
makeAPFC DEBUG: Processing bus k = 17
makeAPFC DEBUG:     not all APFC known, skipping ...
makeAPFC DEBUG: Processing bus k = 18
makeAPFC DEBUG:     not all APFC known, skipping ...
makeAPFC DEBUG: Processing bus k = 19
makeAPFC DEBUG:     not all APFC known, skipping ...
makeAPFC DEBUG: Processing bus k = 20
makeAPFC DEBUG:     not all APFC known, skipping ...
makeAPFC DEBUG: Processing bus k = 21
makeAPFC DEBUG:     not all APFC known, skipping ...
makeAPFC DEBUG: Processing bus k = 22
makeAPFC DEBUG: B[22]: ['G22.1', 'G22.2', 'G22.3', 'G22.4', 'G22.5', 'G22.6'], [50.0, 50.0, 50.0, 50.0, 50.0, 50.0], ['PT', 'PT', 'PT', 'PT', 'PT', 'PT'], [1, 1, 1, 1, 1, 1], sum(P) = 300.0
makeAPFC DEBUG: A[22]: ['E31', 'E38'], [141.54257415469579, 158.457425845304], ['PF', 'PF'], [1, 1], sum(P) = 299.9999999999998
makeAPFC DEBUG: outflow: E31_PF (22-17)
makeAPFC DEBUG: f = 141.54257415469579/300.0 = 0.4718085805156526
makeAPFC DEBUG: inflow: G22.1.G22.1 = 50.0, CP = 23.59042902578263 --> component for: E31_PF.G22.1 (22-17)
makeAPFC DEBUG: P_other_side = 23.181389923796427 --> component for: E31_PT.G22.1
makeAPFC DEBUG: inflow: G22.2.G22.2 = 50.0, CP = 23.59042902578263 --> component for: E31_PF.G22.2 (22-17)
makeAPFC DEBUG: P_other_side = 23.181389923796427 --> component for: E31_PT.G22.2
makeAPFC DEBUG: inflow: G22.3.G22.3 = 50.0, CP = 23.59042902578263 --> component for: E31_PF.G22.3 (22-17)
makeAPFC DEBUG: P_other_side = 23.181389923796427 --> component for: E31_PT.G22.3
makeAPFC DEBUG: inflow: G22.4.G22.4 = 50.0, CP = 23.59042902578263 --> component for: E31_PF.G22.4 (22-17)
makeAPFC DEBUG: P_other_side = 23.181389923796427 --> component for: E31_PT.G22.4
makeAPFC DEBUG: inflow: G22.5.G22.5 = 50.0, CP = 23.59042902578263 --> component for: E31_PF.G22.5 (22-17)
makeAPFC DEBUG: P_other_side = 23.181389923796427 --> component for: E31_PT.G22.5
makeAPFC DEBUG: inflow: G22.6.G22.6 = 50.0, CP = 23.59042902578263 --> component for: E31_PF.G22.6 (22-17)
makeAPFC DEBUG: P_other_side = 23.181389923796427 --> component for: E31_PT.G22.6
makeAPFC DEBUG: outflow: E38_PF (22-21)
makeAPFC DEBUG: f = 158.457425845304/300.0 = 0.5281914194843467
makeAPFC DEBUG: inflow: G22.1.G22.1 = 50.0, CP = 26.409570974217335 --> component for: E38_PF.G22.1 (22-21)
makeAPFC DEBUG: P_other_side = 26.077308097175987 --> component for: E38_PT.G22.1
makeAPFC DEBUG: inflow: G22.2.G22.2 = 50.0, CP = 26.409570974217335 --> component for: E38_PF.G22.2 (22-21)
makeAPFC DEBUG: P_other_side = 26.077308097175987 --> component for: E38_PT.G22.2
makeAPFC DEBUG: inflow: G22.3.G22.3 = 50.0, CP = 26.409570974217335 --> component for: E38_PF.G22.3 (22-21)
makeAPFC DEBUG: P_other_side = 26.077308097175987 --> component for: E38_PT.G22.3
makeAPFC DEBUG: inflow: G22.4.G22.4 = 50.0, CP = 26.409570974217335 --> component for: E38_PF.G22.4 (22-21)
makeAPFC DEBUG: P_other_side = 26.077308097175987 --> component for: E38_PT.G22.4
makeAPFC DEBUG: inflow: G22.5.G22.5 = 50.0, CP = 26.409570974217335 --> component for: E38_PF.G22.5 (22-21)
makeAPFC DEBUG: P_other_side = 26.077308097175987 --> component for: E38_PT.G22.5
makeAPFC DEBUG: inflow: G22.6.G22.6 = 50.0, CP = 26.409570974217335 --> component for: E38_PF.G22.6 (22-21)
makeAPFC DEBUG: P_other_side = 26.077308097175987 --> component for: E38_PT.G22.6
makeAPFC DEBUG: Processing bus k = 23
makeAPFC DEBUG: B[23]: ['G23.1', 'G23.2', 'G23.3'], [155.0, 155.0, 350.0], ['PT', 'PT', 'PT'], [1, 1, 1], sum(P) = 660.0
makeAPFC DEBUG: A[23]: ['E21', 'E22', 'E36', 'E37'], [234.10027488374485, 230.74091271795473, 97.57940619914882, 97.57940619914882], ['PF', 'PF', 'PF', 'PF'], [1, 1, 1, 1], sum(P) = 659.9999999999972
makeAPFC DEBUG: outflow: E21_PF (23-12)
makeAPFC DEBUG: f = 234.10027488374485/660.0 = 0.3546973861874922
makeAPFC DEBUG: inflow: G23.1.G23.1 = 155.0, CP = 54.97809485906129 --> component for: E21_PF.G23.1 (23-12)
makeAPFC DEBUG: P_other_side = 53.475342393276485 --> component for: E21_PT.G23.1
makeAPFC DEBUG: inflow: G23.2.G23.2 = 155.0, CP = 54.97809485906129 --> component for: E21_PF.G23.2 (23-12)
makeAPFC DEBUG: P_other_side = 53.475342393276485 --> component for: E21_PT.G23.2
makeAPFC DEBUG: inflow: G23.3.G23.3 = 350.0, CP = 124.14408516562227 --> component for: E21_PF.G23.3 (23-12)
makeAPFC DEBUG: P_other_side = 120.7507731461082 --> component for: E21_PT.G23.3
makeAPFC DEBUG: outflow: E22_PF (23-13)
makeAPFC DEBUG: f = 230.74091271795473/660.0 = 0.34960744351205264
makeAPFC DEBUG: inflow: G23.1.G23.1 = 155.0, CP = 54.189153744368156 --> component for: E22_PF.G23.1 (23-13)
makeAPFC DEBUG: P_other_side = 52.91197579353327 --> component for: E22_PT.G23.1
makeAPFC DEBUG: inflow: G23.2.G23.2 = 155.0, CP = 54.189153744368156 --> component for: E22_PF.G23.2 (23-13)
makeAPFC DEBUG: P_other_side = 52.91197579353327 --> component for: E22_PT.G23.2
makeAPFC DEBUG: inflow: G23.3.G23.3 = 350.0, CP = 122.36260522921842 --> component for: E22_PF.G23.3 (23-13)
makeAPFC DEBUG: P_other_side = 119.47865501765578 --> component for: E22_PT.G23.3
makeAPFC DEBUG: outflow: E36_PF (23-20)
makeAPFC DEBUG: f = 97.57940619914882/660.0 = 0.14784758515022547
makeAPFC DEBUG: inflow: G23.1.G23.1 = 155.0, CP = 22.91637569828495 --> component for: E36_PF.G23.1 (23-20)
makeAPFC DEBUG: P_other_side = 22.847964431057346 --> component for: E36_PT.G23.1
makeAPFC DEBUG: inflow: G23.2.G23.2 = 155.0, CP = 22.91637569828495 --> component for: E36_PF.G23.2 (23-20)
makeAPFC DEBUG: P_other_side = 22.847964431057346 --> component for: E36_PT.G23.2
makeAPFC DEBUG: inflow: G23.3.G23.3 = 350.0, CP = 51.74665480257892 --> component for: E36_PF.G23.3 (23-20)
makeAPFC DEBUG: P_other_side = 51.592177747548845 --> component for: E36_PT.G23.3
makeAPFC DEBUG: outflow: E37_PF (23-20)
makeAPFC DEBUG: f = 97.57940619914882/660.0 = 0.14784758515022547
makeAPFC DEBUG: inflow: G23.1.G23.1 = 155.0, CP = 22.91637569828495 --> component for: E37_PF.G23.1 (23-20)
makeAPFC DEBUG: P_other_side = 22.847964431057346 --> component for: E37_PT.G23.1
makeAPFC DEBUG: inflow: G23.2.G23.2 = 155.0, CP = 22.91637569828495 --> component for: E37_PF.G23.2 (23-20)
makeAPFC DEBUG: P_other_side = 22.847964431057346 --> component for: E37_PT.G23.2
makeAPFC DEBUG: inflow: G23.3.G23.3 = 350.0, CP = 51.74665480257892 --> component for: E37_PF.G23.3 (23-20)
makeAPFC DEBUG: P_other_side = 51.592177747548845 --> component for: E37_PT.G23.3
makeAPFC DEBUG: Processing bus k = 24
makeAPFC DEBUG:     not all APFC known, skipping ...
makeAPFC INFO: iter = 1, time = 0.006
makeAPFC DEBUG: ========== Start of iteration 2 ==========
makeAPFC DEBUG: Processing bus k = 1
makeAPFC DEBUG:     not all APFC known, skipping ...
makeAPFC DEBUG: Processing bus k = 2
makeAPFC DEBUG:     not all APFC known, skipping ...
makeAPFC DEBUG: Processing bus k = 3
makeAPFC DEBUG:     not all APFC known, skipping ...
makeAPFC DEBUG: Processing bus k = 4
makeAPFC DEBUG:     not all APFC known, skipping ...
makeAPFC DEBUG: Processing bus k = 5
makeAPFC DEBUG:     not all APFC known, skipping ...
makeAPFC DEBUG: Processing bus k = 6
makeAPFC DEBUG:     not all APFC known, skipping ...
makeAPFC DEBUG: Processing bus k = 8
makeAPFC DEBUG:     not all APFC known, skipping ...
makeAPFC DEBUG: Processing bus k = 9
makeAPFC DEBUG:     not all APFC known, skipping ...
makeAPFC DEBUG: Processing bus k = 10
makeAPFC DEBUG:     not all APFC known, skipping ...
makeAPFC DEBUG: Processing bus k = 11
makeAPFC DEBUG:     not all APFC known, skipping ...
makeAPFC DEBUG: Processing bus k = 12
makeAPFC DEBUG:     not all APFC known, skipping ...
makeAPFC DEBUG: Processing bus k = 13
makeAPFC DEBUG: B[13]: ['E22', 'G13.1', 'G13.2'], [225.3026066047223, 95.1, 95.1], ['PT', 'PT', 'PT'], [1, 1, 1], sum(P) = 415.50260660472236
makeAPFC DEBUG: A[13]: ['E18', 'E20', 'L13', 'G13.3'], [86.76392492028579, 60.78509717511857, 265.0, 2.9535845093179773], ['PF', 'PF', 'PF', 'PF'], [1, 1, 1, 1], sum(P) = 415.5026066047223
makeAPFC DEBUG: outflow: E18_PF (13-11)
makeAPFC DEBUG: f = 86.76392492028579/415.50260660472236 = 0.20881680052329107
makeAPFC DEBUG: inflow: G13.1.G13.1 = 95.1, CP = 19.85847772976498 --> component for: E18_PF.G13.1 (13-11)
makeAPFC DEBUG: P_other_side = 19.71701900734891 --> component for: E18_PT.G13.1
makeAPFC DEBUG: inflow: G13.2.G13.2 = 95.1, CP = 19.85847772976498 --> component for: E18_PF.G13.2 (13-11)
makeAPFC DEBUG: P_other_side = 19.71701900734891 --> component for: E18_PT.G13.2
makeAPFC DEBUG: inflow: E22.G23.1 = 52.91197579353327, CP = 11.048909494571443 --> component for: E18_PF.G23.1 (13-11)
makeAPFC DEBUG: P_other_side = 10.970204336882029 --> component for: E18_PT.G23.1
makeAPFC DEBUG: inflow: E22.G23.2 = 52.91197579353327, CP = 11.048909494571443 --> component for: E18_PF.G23.2 (13-11)
makeAPFC DEBUG: P_other_side = 10.970204336882029 --> component for: E18_PT.G23.2
makeAPFC DEBUG: inflow: E22.G23.3 = 119.47865501765578, CP = 24.94915047161294 --> component for: E18_PF.G23.3 (13-11)
makeAPFC DEBUG: P_other_side = 24.77142914779813 --> component for: E18_PT.G23.3
makeAPFC DEBUG: outflow: E20_PF (13-12)
makeAPFC DEBUG: f = 60.78509717511857/415.50260660472236 = 0.14629293826054116
makeAPFC DEBUG: inflow: G13.1.G13.1 = 95.1, CP = 13.912458428577462 --> component for: E20_PF.G13.1 (13-12)
makeAPFC DEBUG: P_other_side = 13.850478538314464 --> component for: E20_PT.G13.1
makeAPFC DEBUG: inflow: G13.2.G13.2 = 95.1, CP = 13.912458428577462 --> component for: E20_PF.G13.2 (13-12)
makeAPFC DEBUG: P_other_side = 13.850478538314464 --> component for: E20_PT.G13.2
makeAPFC DEBUG: inflow: E22.G23.1 = 52.91197579353327, CP = 7.740648408006611 --> component for: E20_PF.G23.1 (13-12)
makeAPFC DEBUG: P_other_side = 7.706163881683986 --> component for: E20_PT.G23.1
makeAPFC DEBUG: inflow: E22.G23.2 = 52.91197579353327, CP = 7.740648408006611 --> component for: E20_PF.G23.2 (13-12)
makeAPFC DEBUG: P_other_side = 7.706163881683986 --> component for: E20_PT.G23.2
makeAPFC DEBUG: inflow: E22.G23.3 = 119.47865501765578, CP = 17.478883501950413 --> component for: E20_PF.G23.3 (13-12)
makeAPFC DEBUG: P_other_side = 17.401015216705776 --> component for: E20_PT.G23.3
makeAPFC DEBUG: outflow: L13_PF (13-0)
makeAPFC DEBUG: f = 265.0/415.50260660472236 = 0.6377817991695558
makeAPFC DEBUG: inflow: G13.1.G13.1 = 95.1, CP = 60.653049101024756 --> component for: L13_PF.G13.1 (13-0)
makeAPFC DEBUG: P_other_side = 60.653049101024756 --> component for: L13_PT.G13.1
makeAPFC DEBUG: inflow: G13.2.G13.2 = 95.1, CP = 60.653049101024756 --> component for: L13_PF.G13.2 (13-0)
makeAPFC DEBUG: P_other_side = 60.653049101024756 --> component for: L13_PT.G13.2
makeAPFC DEBUG: inflow: E22.G23.1 = 52.91197579353327, CP = 33.74629511921564 --> component for: L13_PF.G23.1 (13-0)
makeAPFC DEBUG: P_other_side = 33.74629511921564 --> component for: L13_PT.G23.1
makeAPFC DEBUG: inflow: E22.G23.2 = 52.91197579353327, CP = 33.74629511921564 --> component for: L13_PF.G23.2 (13-0)
makeAPFC DEBUG: P_other_side = 33.74629511921564 --> component for: L13_PT.G23.2
makeAPFC DEBUG: inflow: E22.G23.3 = 119.47865501765578, CP = 76.20131155951918 --> component for: L13_PF.G23.3 (13-0)
makeAPFC DEBUG: P_other_side = 76.20131155951918 --> component for: L13_PT.G23.3
makeAPFC DEBUG: outflow: G13.3_PF (13-0)
makeAPFC DEBUG: f = 2.9535845093179773/415.50260660472236 = 0.007108462046611884
makeAPFC DEBUG: inflow: G13.1.G13.1 = 95.1, CP = 0.6760147406327901 --> component for: G13.3_PF.G13.1 (13-0)
makeAPFC DEBUG: P_other_side = 0.6760147406327901 --> component for: G13.3_PT.G13.1
makeAPFC DEBUG: inflow: G13.2.G13.2 = 95.1, CP = 0.6760147406327901 --> component for: G13.3_PF.G13.2 (13-0)
makeAPFC DEBUG: P_other_side = 0.6760147406327901 --> component for: G13.3_PT.G13.2
makeAPFC DEBUG: inflow: E22.G23.1 = 52.91197579353327, CP = 0.376122771739578 --> component for: G13.3_PF.G23.1 (13-0)
...

components INFO: Calculate reactive power flow components
makeRPFC INFO: Starting ...
makeReactiveFlows INFO: Swap branch orientation when both QF and QT are negative (19)
makeReactiveFlows DEBUG: Before swap
    F_BUS  T_BUS      QF      QT     QSF     QST   TAP
5       3      9 -17.009 -14.746   1.576   1.614  1.00
8       5     10  -9.628  -7.301   1.240   1.264  1.00
12      8     10 -18.006 -14.611   2.202   2.364  1.00
13      9     11 -12.765 -22.869  33.769 -33.992  1.03
14      9     12 -25.690 -39.158  33.769 -34.865  1.03
17     11     13 -54.965 -49.697   4.895   5.197  1.00
19     12     13 -33.302 -25.198   5.020   5.197  1.00
20     12     23  -6.067 -34.524  10.201  11.190  1.00
22     14     16 -23.766 -70.485   3.928   4.230  1.00
23     15     16 -32.603 -31.130   1.871   1.882  1.00
24     15     21 -41.969 -53.650   5.295   5.678  1.00
25     15     21 -41.969 -53.650   5.295   5.678  1.00
27     16     17 -33.859 -54.416   2.818   2.939  1.00
28     16     19 -43.354 -41.638   2.508   2.539  1.00
29     17     18 -58.694 -60.490   1.634   1.670  1.00
33     19     20 -39.319 -31.345   4.361   4.492  1.00
34     19     20 -39.319 -31.345   4.361   4.492  1.00
35     20     23 -44.345 -41.630   2.453   2.508  1.00
36     20     23 -44.345 -41.630   2.453   2.508  1.00
makeReactiveFlows DEBUG: After swap
    F_BUS  T_BUS      QF      QT     QSF     QST   TAP
5       9      3  14.746  17.009   1.614   1.576  1.00
8      10      5   7.301   9.628   1.264   1.240  1.00
12     10      8  14.611  18.006   2.364   2.202  1.00
13     11      9  22.869  12.765 -33.992  33.769  1.03
14     12      9  39.158  25.690 -34.865  33.769  1.03
17     13     11  49.697  54.965   5.197   4.895  1.00
19     13     12  25.198  33.302   5.197   5.020  1.00
20     23     12  34.524   6.067  11.190  10.201  1.00
22     16     14  70.485  23.766   4.230   3.928  1.00
23     16     15  31.130  32.603   1.882   1.871  1.00
24     21     15  53.650  41.969   5.678   5.295  1.00
25     21     15  53.650  41.969   5.678   5.295  1.00
27     17     16  54.416  33.859   2.939   2.818  1.00
28     19     16  41.638  43.354   2.539   2.508  1.00
29     18     17  60.490  58.694   1.670   1.634  1.00
33     20     19  31.345  39.319   4.492   4.361  1.00
34     20     19  31.345  39.319   4.492   4.361  1.00
35     23     20  41.630  44.345   2.508   2.453  1.00
36     23     20  41.630  44.345   2.508   2.453  1.00
makeReactiveFlows INFO: Shunts with negative power converted to loads (1)
makeReactiveFlows DEBUG: Shunts with negative power converted to loads
   F_BUS  T_BUS       QT TYPE  ID       QF      QF1      QT1  QSF  QST  TAP
5      6      0  102.496    L  S6  102.496  102.496  102.496    0    0    1
makeReactiveFlows INFO: Generators with negative power converted to loads (8)
makeReactiveFlows DEBUG: Generators with negative power converted to loads
    F_BUS  T_BUS      QT TYPE   ID      QF     QF1     QT1  QSF  QST  TAP
14     14      0  27.724    L  G14  27.724  27.724  27.724    0    0    1
20     15      0  12.588    L  G15  12.588  12.588  12.588    0    0    1
24     22      0   4.924    L  G22   4.924   4.924   4.924    0    0    1
25     22      0   4.924    L  G22   4.924   4.924   4.924    0    0    1
26     22      0   4.924    L  G22   4.924   4.924   4.924    0    0    1
27     22      0   4.924    L  G22   4.924   4.924   4.924    0    0    1
28     22      0   4.924    L  G22   4.924   4.924   4.924    0    0    1
29     22      0   4.924    L  G22   4.924   4.924   4.924    0    0    1
makeReactiveFlows INFO: Branches that are receiving reactive powers from both ends converted to loads (3)
makeReactiveFlows DEBUG: Branches that are receiving reactive powers from both ends converted to loads
    F_BUS  T_BUS      QF     QF1     QT1      QT     QSF     QST   TAP TYPE   ID
6       3     24   6.117  39.084  -1.309 -34.480  32.967 -33.170  1.03    E   E7
16     10     12  23.177  47.394  23.262  -0.210  24.217 -23.471  1.02    E  E17
...